<?xml version="1.0" encoding="UTF-8"?>

<!-- generated on Wed Apr  1 00:32:54 2020 by Eclipse SUMO duarouter Version v1_5_0+0257-3d8ad007eb
<configuration xmlns:xsi="http://www.w3.org/2001/XMLSchema-instance" xsi:noNamespaceSchemaLocation="http://sumo.dlr.de/xsd/duarouterConfiguration.xsd">

    <input>
        <net-file value="pecs.net.xml"/>
        <route-files value="trips.trips.xml"/>
    </input>

    <output>
        <output-file value="pecs.rou.xml"/>
        <alternatives-output value="pecs.rou.alt.xml"/>
    </output>

    <time>
        <begin value="0"/>
        <end value="200.0"/>
    </time>

    <report>
        <no-warnings value="true"/>
        <ignore-errors value="true"/>
        <no-step-log value="true"/>
    </report>

</configuration>
-->

<routes xmlns:xsi="http://www.w3.org/2001/XMLSchema-instance" xsi:noNamespaceSchemaLocation="http://sumo.dlr.de/xsd/routes_file.xsd">
    <vehicle id="0" depart="0.00">
        <route edges="-4059340#1 -4059340#0 -578083757 -3987578#3 -3987578#2 -3987578#1 -3987578#0 3429496#5 83233174#0 83233174#1 518338212 518338211 518338210 83233173#0 83233173#1 83233168#0 83233168#1 83233168#2 83233168#3 83233168#4 83233168#5 168445809#0 168445809#1 518338218 518338217 518338216 168445845#0 168445845#1 -3552147#2 -3552147#1 -30803622 -3552148#4 -3552148#3 -3552148#2 -3552148#0 -3552150#2 -3552150#1 -3552150#0 -261403128#0 204520564#0 204520564#1 261302051 -41246773#1 -41246773#0 51554278#0 51554278#1 51554278#2 261302056 41246723 261302055#0 31454390#0 31454390#1 261298286 83233178#0 331848850#0 331848850#1 331848850#2 331848850#3 331848850#4 260095309 260095312#0 260095312#1 260095312#2 260095312#3 260095312#4 260095312#5 260095312#6 168559826#0 168559826#1 -168559824#3 -168559824#2 -168559824#1 -168559824#0 312394429 312394428 312394441 110247558 312394447 312394451#0 312394434 312394445#0 518338264#1 4075421#1 164465798#0 164465798#2 164465798#3 164465798#4 164465798#5 164465798#6 164465798#7 164465798#8 518338268 41714687#0 41714687#3 41714687#4 41714687#5 41714687#6 41714687#7 41714687#8 261250710 204479850 204479791#0 204479791#1 204479791#2 204479831 51552977 559820554#0 559820554#1 559820554#2 3430150#1 559820555#0 559820555#1 355147042 355147038 355147074#1 355147092 432331123 355147048 355147036 355147075#0 355147075#1 355147075#2 355147075#3 355147075#4 355147075#5 -355147075#5"/>
    </vehicle>
    <vehicle id="1" depart="1.00">
        <route edges="8084300#1 -8084570#2 -8084570#1 -8084318#6 -8084318#5 8084500#1 -518338173#0 -41809518 78174918 220025558 356925046 356925041 168280987#0 168280987#1 78174928#0 78174928#1 168280984#0 168280984#1 -356925050 -356925037#3 -356925037#2 -356925037#0 -356925054 356925109 -585198434#2 -585198434#1 -585198434#0 -4292676#1 -4292676#0 261385817#0 261385817#1 261385817#2 261385817#5 261385817#6 261385817#7 261385817#9 261385817#10 261385817#11 110247556#3 110247556#4 204023173#0 204023173#1 204023173#2 30783774#0 30783774#1 30783784#0 30783784#1 585198592#0 585198592#2 585198592#4 585198592#5 585198592#6 41713379#1 41713379#2 41713379#3 279496867#1 279496867#2 279496867#3 279496867#4 41713401#0 41713401#1 460070626#1 460070626#2 3428709#0 3428709#1 3428709#3 518338206 3429495 363312099 450844376#0 450844376#1 241598561#0 241598561#3 521085114#1 521085114#2 521085114#3 3987498#1 3987498#2 3987499#0 3987499#2 3987499#3 3987499#4 3987499#5 3987500#1 3987500#4 3987500#7 3987500#8 3987500#9 30667844#0 30667844#1 30667844#2"/>
    </vehicle>
    <vehicle id="2" depart="2.00">
        <route edges="330682298#2 -338668688#3 -338668688#2 -338668688#1 -330682299 338668690#2 338668690#3 338668690#4 338668690#5 338668690#6 338668690#7 338668690#8 -37919946 41587938 450896666#0 450896666#1 450896666#2 41587944#1 41587944#2 41587944#3 41587944#4 41587944#5 41587944#6 41587944#7 41587944#8 41587944#9 42860852 42860862#0 42860862#1 42860862#2 42860862#3 42860862#4 -41808888 -8283572 -42860179#2 -42860179#1 -42860179#0 -375201783#0 -41808635#1 -518338414 -330830801 -41763264 -375201332#4 -375201332#3 -375201332#2 -375201332#1 -375201332#0 -450896665#1 -450896665#0 -450896664 -41758493#2 -41758493#1 -41758493#0 -518338405#2 -518338405#1 -518338405#0 -518338399#0 -312341111#14 -312341111#13 -312341111#12 -312341111#11 -312341111#10 -312341111#9 -312341111#7 -312341111#5 -312341111#3 -312341111#1 -312341111#0 -261070780#2 -261070780#1 -261070780#0 -4670076#1 -4670076#0 4669036#1 312341112 312341116 312341126#0 312341126#1 312341115 312341124 312341118 312341121 312341125#0 312341120 312341114 312341131 312341132 312341127 312341130 312341117 312341128#0 312341128#1 312341133#0 312341133#1 220025544 220025542 81147239 312341123 312341129 312341113 312341122 8083701#0 8083701#1 312297467 312297423 312297385 312297468 312297427 312297437 312297494 312297488 31279897 312297369 312297439 4077664 312297514#1 -208846531"/>
    </vehicle>
    <vehicle id="3" depart="3.00">
        <route edges="-147174874#0 621239648#0 621239648#1 -253390271 -31406140#10 -31406140#9 -31406140#8 -31406140#6 -31406140#5 -31406140#4 -31406140#2 -31406140#1 -31406140#0 -31406068#3 -31406068#2 -31406068#1 -31406068#0 -253388392#1 -253388392#0 -4059590#4 -4059590#3 -4059590#2 -4059590#0 -72212141#11 -72212141#10 -72212141#9 -72212141#8 -72212141#7 -72212141#6 -72212141#5 -72212141#4 -72212141#3 -72212141#2 -72212141#1 -72212141#0 -239858296#1 -239858296#0 -239858335#0 -239858351#1 -239858351#0 -280373455#5 -280373455#4 -280373455#3 -280373455#2 -280373455#1 -280373455#0 4068221 280373398 353613221#0 353613221#1 353613221#2 353613221#3 353613221#4 31098983#0 31098983#1 31098983#2 31098983#3 31099188#0 31099188#1 31099256 256977031#0"/>
    </vehicle>
    <vehicle id="4" depart="4.00">
        <route edges="-141121335#2 -141121335#1 141121329#3 141121329#4 141121329#5 141121329#6 141121329#7 141121329#8 141121329#10 3429498#0 3429498#2 3429498#3 3429498#4 169320759#1 169320759#4 169320759#5 169320759#6 41802370#1 41802370#2 41802370#3 460070633 83233170#0 83233170#1 460070634 518338210 518338209 518338213#0 657034939#0 657034939#1 639406093#0 639406093#1 639406093#2 3987500#4 -450844395#0 -110434691#1 -110434691#0 4059399#0 4059399#1 4059399#2 4059399#4 4059399#5 4059399#6 4059399#7 41807520#0 41807520#2 41807520#3 41807520#4 30742489#1 30742489#2 30742489#3 30742489#4 -30742666#1 -30742666#0 41527851 451334473 3425635#1 3425635#2 3425635#3 401965827#1 401965826#1 3426236#1 41712677#0 41712677#1 41712677#2 41712677#3 41712677#4 41712677#5 41712677#6 318396976#0 318396976#1 318396978#1 -41670061 -41670063 -31764445#20 -31764445#19 -31764445#18 -31764445#17 -31764445#16 -31764445#15 -31764445#14 -31764445#13 -31764445#12 -72060496 -31764264#2"/>
    </vehicle>
    <vehicle id="5" depart="5.00">
        <route edges="330682302#4 -330682302#4 -330682302#3 -330682302#2 -330682302#1 -330682302#0 -330682295 -330682297#0 -38913642#1 -38913642#0 -41585703#1 -41585703#0 -41585720 -41582908 -190029541#1 -190029541#0 -31821659#10 -31821659#9 -31821659#8 -31821659#7 -31821659#6 -31821659#5 -31821659#4 -31821659#3 -31821659#2 -31821659#1 -31821659#0 -4059276#3 -4059276#2 -30746047#3 -30746047#2 -30746047#1 -30746047#0 -660983053 -422534294 -422534293#3 -422534293#2 -422534293#1 -422534293#0 -4059231#11 -4059231#10 -4059231#9 -4059231#8 -4059231#7 -4059231#6 -4059231#5 -4059231#3 -4059231#2 -4059231#1 4064017#2 4064017#3 4064017#4 -3429883#0 -3552148#0 -3552150#2 -3552150#1 -3552150#0 -261403128#0 204520564#0 204520564#1 261302051 -41246773#1 -41246773#0 51554278#0 51554278#1 51554278#2 261302056 41246723 261302055#0 31454390#0 31454390#1 261298286 83233178#0 331848850#0 331848850#1 331848850#2 331848850#3 331848850#4 260095309 260095312#0 260095312#1 260095312#2 260095312#3 260095312#4 260095312#5 260095312#6 168559826#0 168559826#1 -168559824#3 -168559824#2 -168559824#1 -168559824#0 312394429 312394428 312394441 110247558 312394447 312394451#0 312394434 312394445#0 518338264#1 4075421#1 164465798#0 164465798#2 164465798#3 164465798#4 164465798#5 164465798#6 164465798#7 164465798#8 3430148#0 3430148#1 41763898#0 -521085123 -41764098#6 -41764098#5 -41764098#4 -41764098#3 -41764098#2 -41764098#1 -41764098#0 -41764090#7 -41764090#6 -41764090#5 -41764090#4 -41764090#3 -41764090#2 -41764090#1 -41764090#0 -261078829 -30589290#2 -30589290#1 -30589290#0 -30589156#1 -30589156#0 -30589049#5 -30589049#4 -30589049#3 -30589049#2 -30589049#1 -30589049#0 384656648 -52057721 81147237#0 30589536"/>
    </vehicle>
    <vehicle id="6" depart="6.00">
        <route edges="256664527#1 -256664527#1 -256664527#0 110247491 110247528#1 110247528#2 356925076#0 356925076#1 356925042 356925038 356925048 356925044 356925039 356925045 356925051#0 356925051#1 110247510 356925043 356925052 -356925077 -585198434#2 -585198434#1 -585198434#0 -4292676#1 -4292676#0 257245031#0 257245031#1 261407202 261385818#1 261385818#3 261385818#4 261385818#5 261385818#6 261385818#8 261385818#9 261385818#10 261385818#13 261385818#15 261385818#17 261385818#18 261385818#21 261385818#22 261385818#24 261385818#26 261385818#27 261385818#28 41815835#0 41815835#1 164591781 -220025550 -220025547 -220025553 -316093119 -110247530 -440522873#2 -440522873#1 -440522873#0 -450896669#1 -450896669#0 -772967016#0 -110247485#0 -110247560#1 -110247560#0 164465798#8 3430148#0 3430148#1 41763898#0 -547880245#1 -229894467#1 -229894467#0 -547880244 -41764169 -547880242 -450896681 -81147236 -220025557 220025556 3430149 81147239 312341123 312341129 312341113 312341122 8083701#0 8083701#1 312297467 312297423 312297385 312297468 312297427 312297437 312297494 312297488 31279897 312297369 312297439 4077664 312297514#1 312297514#2 224879314 4423591 261414855 31301017#1 31301017#2 31301017#3 31301017#4 31301017#5 4423592#1 4423592#2 4423592#3 4423592#4 4423592#5 4423592#6 4423592#7 4423592#8 4423592#10 4423592#11 626829960 31459661#1 -31459661#1"/>
    </vehicle>
    <vehicle id="7" depart="7.00">
        <route edges="-387565948#4 -387565948#3 -387565948#2 -387565948#0 -3427032#6 -3427032#5 -3427032#4 -3427032#3 -3427032#2 -3427032#0 -42450505#8 -42450505#7 -42450505#6 -42450505#5 -42450505#4 -42450505#3 -42450505#1 -42450505#0 -606768506 -3427029#1 -3427029#0 -506195307 -41674428 -42449763 -329284717 -318396978#5 -318396978#4 -318396978#3 -318396978#2 -318396978#1 -318396978#0 -318396976#0 -129911218 -41712677#5 -41712677#4 -41712677#3 -41712677#2 -41712677#1 -335547535#1 -335547535#0 -335547536#0 -335547534#0 -335547532#1 -335547532#0 -332208660#1 -332208660#0 -332208661#1 -332208661#0 -30782515#0 -30818863#3 -30818863#2 -30818863#1 -30818863#0 -86322986#0 -110247557#3 -110247557#2 -110247557#1 -110247557#0 -3426019 -450844386 460070637 3545266 110247534#1 110247534#2 640603739#0 640603739#1 640603739#2 -204520565 204520567#0 204520567#1 518338160 261298290 753510652 204520570#0 204520570#1 204520572 220025559 518338231 518338230"/>
    </vehicle>
    <vehicle id="8" depart="8.00">
        <route edges="-261093144#6 -261093144#5 -261093144#4 -261093144#2 -261093144#1 -261093144#0 -261093147#1 -261093147#0 -518338356 -261093145 -518338352 -220025538#2 -220025538#1 -220025538#0 -518338173#0 -41809518 78174918 220025558 356925046 356925041 168280987#0 168280987#1 78174928#0 78174928#1 168280984#0 168280984#1 -356925050 -356925037#3 -356925037#2 -356925037#0 -356925054 356925109 -585198434#2 -585198434#1 -585198434#0 -4292676#1 -4292676#0 261385817#0 261385817#1 261385817#2 261385817#5 261385817#6 261385817#7 261385817#9 261385817#10 261385817#11 110247556#3 110247556#4 204023173#0 204023173#1 204023173#2 30783774#0 30783774#1 30783784#0 30783784#1 585198592#0 585198592#2 585198592#4 585198592#5 585198592#6 4292807#1 4292807#2 4292807#3 4292807#4 4292807#7 4292807#10 4292807#11 4292807#12 4292807#13 4292808#1 4292808#2 4292808#3 4292808#4 4292808#5 -3429498#0"/>
    </vehicle>
    <vehicle id="9" depart="9.00">
        <route edges="-330846250#0 330846250#0 330846250#1 330846250#2 330846276#0 330846276#1 -42749954#1 -42749954#0 -31022174#4 -31022174#3 -31022174#2 -31022174#1 -31022174#0 -337818863#1 -337818863#0 -330918518#5 -330918518#4 -330918518#3 -330918518#2 -330918518#1 -330918518#0 -4570915#1 -4570915#0 -8283572 -42860179#2 -42860179#1 -42860179#0 -375201783#0 -41808635#1 -518338414 -330830801 -41763264 -375201332#4 -375201332#3 -375201332#2 -375201332#1 -375201332#0 -450896665#1 -450896665#0 -450896664 -41758493#2 -41758493#1 -41758493#0 -41758515#1 -41247521#5 -41247521#4 -41247521#2 -41247521#1 -41247521#0 -450896657 -41249408#3 -41249408#2 -41249408#1 -41249408#0 -261300264#2 -261300264#1 -261300264#0 -41247510 -437249966#1 -437249966#0 -31540956#7 -31540956#6 -31540956#5 -31540956#4 -31540956#3 -31540956#2 -31540956#1 -31540956#0 -450844375#2 -450844375#1 -450844375#0 -4059520#7 -4059520#6 -4059520#5 -4059520#4 -4059520#3 -4059520#2 -4059520#1 3566533#0 -41246773#0 51554278#0 51554278#1 51554278#2 261302056 83233176#0 83233176#1 -331850974 -518338154#0 -450844383#0 168302156#0 168302156#1 41246475#0 41246475#1 51556062#1 51556062#2 51556062#3 51556062#4 51556062#5 51556062#6 312555442 312555443#0 312555443#1 41246450 204046008#0 204046007#1 204046005 312555437 220025530 312555435 312555439 312555438 261385816 81147234 3551813 261073255 313669370 76739147 41809315 75513394 313669346 521085121 518338170#1 313669316 313669344#0 313669344#1 110247489 220025551 220025547 30647476#1 -41815835#1 -41815835#0 -261253841#12 -261253841#11 -261253841#9 -261253841#8 -261253841#7 -261253841#6 -261253841#4 -261253841#3 -261253841#0 -41813044#3 -41813044#2 -41813044#1 -336696805#1 -336696805#0 -336696804 -235935815#5 -235935815#2 -235935815#1 -235935815#0 518338434 518338430 518338438 235935818#0 235935818#1 235935818#2 235935818#3 235935818#4 235935818#5 235935818#6 235935818#8 235935818#9 220025540#0 41809518 518338173#0 -8084500#1 -8084318#3 -8084318#2 -8084318#1 -8084318#0 -8084599#0 -8084424"/>
    </vehicle>
    <vehicle id="10" depart="10.00">
        <route edges="41526911#4 41526911#5 41526911#6 41526911#7 -42449763 -329284717 -318396978#5 -318396978#4 -318396978#3 -318396978#2 -318396978#1 -318396978#0 -318396976#0 -129911218 -41712677#5 -41712677#4 -41712677#3 -41712677#2 -41712677#1 -41712677#0 -3426236#1 -3426236#0 -401965826#0 -3425635#3 -3425635#2 -3425635#1 -609715259 -41527851 -451334479#2 -451334479#1 -451334479#0 -609715247#2 -609715247#1 -261379102#17 -261379102#16 -261379102#15 -261379102#14 -261379102#13 -261379102#12 -261379102#10 -261379102#9 -261379102#8 -261379102#7 -261379102#6 -261379102#5 -261379102#4 -261379102#3 -261379102#2 -261379102#1 -450844378#2 -450844378#1 -450844378#0 -3428709#3 -3428709#1 -3428709#0 -460070626#2 -460070626#1 -41713401#1 -41713401#0 -279496867#4 -279496867#3 -279496867#2 -279496867#1 -41713379#3 -41713379#2 -41713379#1 -585198592#6 -585198592#5 -585198592#4 -585198592#2 -585198592#0 -30783784#1 -30783784#0 -551993389 -30783774#0 -551993392 -204023173#1 -204023173#0 -110247556#4 -110247556#3 -110247556#0 -261385817#10 -261385817#9 -261385817#7 -261385817#6 -261385817#5 -261385817#2 -261385817#1 -261385817#0 -261407201#1 -261407201#0 -41815763#8 -41815763#7 -41815763#6 -41815763#5 -41815763#4 -41815763#3 -41815763#1 -41815763#0 518338430 518338438 235935818#0 235935818#1 235935818#2 235935818#3 235935818#4 235935818#5 235935818#6 235935818#8 235935818#9 220025540#0 41809518 518338173#0 518338173#2 220025538#1 220025538#2 518338352 41850491 261259347#0 261259347#1 261259347#2 261259347#3 261259347#4 261259347#5 261070781#0 261070781#1 -41812927#3 -41812927#1 -41812927#0 -518338396#2 -518338396#1 -518338396#0 -4059601#3 -4059601#1 -4059601#0 168196106#0 168196106#1 168196100#0 168196100#1 168196100#2 168196090 168196112#0 168196112#1 313934034 313934033 313934037#0 313934037#1 168196116#0 168196116#1 168196089#2 168196089#3 168196089#4 168196089#5 168196089#6 168196114 168196111 313934035 313934036 308721683 308721685 308721684 167854141 167854139 308721681 308721682 308721680 313934028 313934029 313934027 313934031 314995542 314995544 31791306 314995537#1 314995537#2 314995537#3 314995537#4 31791316#1 31791370#0 31791370#1 31791370#2 31791370#3 31791370#4 31791370#5 31791370#6 113728660#0 113728660#1"/>
    </vehicle>
    <vehicle id="11" depart="11.00">
        <route edges="-701155992 -169858002#0 349624482#8 349624482#9 349624482#10 349624482#11 -437249963 -293140533 -563660487#1 -563660487#0 -41808888 -8283572 -42860179#2 -42860179#1 -42860179#0 -375201783#0 -41808635#1 -518338414 -330830801 -41763264 -375201332#4 -375201332#3 -375201332#2 -375201332#1 -375201332#0 -450896665#1 -450896665#0 -450896664 -41758493#2 -41758493#1 -41758493#0 -41758515#1 -41247521#5 -41247521#4 -41247521#2 -41247521#1 -41247521#0 -450896657 -41249408#3 -41249408#2 -41249408#1 -41249408#0 -261300264#2 -261300264#1 -261300264#0 -41247510 -437249966#1 -437249966#0 -31540956#7 -31540956#6 -31540956#5 -31540956#4 -31540956#3 -31540956#2 -31540956#1 -31540956#0 -450844375#2 -450844375#1 -450844375#0 -4059520#7 -4059520#6 -4059520#5 -4059520#4 -4059520#3 -4059520#2 -4059520#1 3566533#0 -41246773#0 51554278#0 51554278#1 51554278#2 261302056 83233176#0 83233176#1 -331850974 -518338154#0 -450844383#0 168302156#0 168302156#1 41246475#0 41246475#1 51556062#1 51556062#2 51556062#3 51556062#4 51556062#5 51556062#6 312555442 312555443#0 312555443#1 41246450 204046008#0 204046007#1 204046005 312555437 220025530 312555435 312555439 312555438 261385816 81147234 3551813 261073255 313669370 76739147 41809315 75513394 313669346 521085121 518338170#1 313669316 313669344#0 313669344#1 110247489 220025551 220025547 30647476#1 -41815835#1 -41815835#0 -261385818#28 -261385818#27 -261385818#26 -261385818#24 -261385818#22 -261385818#21 -261385818#18 -261385818#17 -261385818#15 -261385818#13 -261385818#10 -261385818#9 -261385818#8 -261385818#6 -261385818#5 -261385818#4 -261385818#3 -261385818#1 -261385818#0"/>
    </vehicle>
    <vehicle id="12" depart="12.00">
        <route edges="518338388#0 518338388#1 518338388#2 -604657834 168697605 322863699 -563660487#0 -41808888 -8283572 -42860179#2 -42860179#1 -42860179#0 -375201783#0 -41808635#1 -518338414 -330830801 -41763264 -375201332#4 -375201332#3 -375201332#2 -375201332#1 -375201332#0 -450896665#1 -450896665#0 -450896664 -41758493#2 -41758493#1 -41758493#0 -41758515#1 -41247521#5 -41247521#4 -41247521#2 -41247521#1 -41247521#0 -450896657 -41249408#3 -41249408#2 -41249408#1 -41249408#0 -261300264#2 -261300264#1 -261300264#0 168559823#0 168559823#1 261298271#0 261298271#1 261298271#2 -41714562#1 518338264#1 4075421#1 164465798#0 164465798#2 164465798#3 164465798#4 164465798#5 164465798#6 164465798#7 164465798#8 518338268 41714687#0 41714687#3 41714687#4 41714687#5 41714687#6 41714687#7 41714687#8 261250710 204479850 204479791#0 204479849 3430151#0 3430151#1 204479847 54511342#1 54511342#2 54511342#3 54511343 54511341#0 54511341#1 149182925#0 149182925#2 734557416#0 734557416#1 538098426#0"/>
    </vehicle>
    <vehicle id="13" depart="13.00">
        <route edges="-220025551 220025551 220025547 30647476#1 -41815835#1 -41815835#0 -261253841#12 -261253841#11 -261253841#9 -261253841#8 -261253841#7 -261253841#6 -261253841#4 -261253841#3 -261253841#0 -41813044#3 -41813044#2 -41813044#1 -4059624 -220025537#7 -220025537#6 -220025537#5 -220025537#4 -220025537#3 -220025537#2 -220025537#1 -220025537#0 -356925070 -356925068#7 -356925068#6 -356925068#5 -356925068#4 -356925068#2 -8084601#1 8084601#1"/>
    </vehicle>
    <vehicle id="14" depart="14.00">
        <route edges="687756439 254237921#2 254237921#3 -355147075#7 -355147075#6 -355147075#5 -355147075#4 -355147075#3 -355147075#2 -355147075#1 -355147075#0 -355147036 -355147048 -355147037 -355147092 -355147074#1 -355147038 -355147042 -355147063 -355147045 -355147034 -204479869 204479874 54511342#8 54511342#9 54511342#1 204479877 -290182146 -356925055#0 -41853187 -356925047 -356925049#1 -356925049#0 -356925053 -356925036 -326353381 -326353380 -356925061 -356925062 -261401188 -356925067 -356925065 -354411057 -41806377#1 -41806377#0 -261410790 -521085118 -168253289#10 -168253289#9 -168253289#8 -168253289#7 -168253289#6 -168253289#5 -168253289#4 -168253289#2 -168253289#1 -168253289#0 41806393#0 41806393#1 41806393#2 41806393#3 41806393#4 41806393#5 41806393#6 41806393#7"/>
    </vehicle>
    <vehicle id="15" depart="15.00">
        <route edges="520615336#0 339101318#0 339101318#1 37919980#8 37919980#9 37919980#10 37919980#11 37919980#12 330680815 330680799#0 330680799#1 330680799#2 330680799#3 41585907#0 41585907#1 41585890 -31821659#10 -31821659#9 -31821659#8 -31821659#7 -31821659#6 -31821659#5 -31821659#4 -31821659#3 -31821659#2 -31821659#1 -31821659#0 -8084552 8084420#0 8084420#1 -450844401#1 -450844401#0 -307681891#2 -307681891#1 -4059304#4 -4059304#3 -4059304#2 -41808047#1 -41808047#0 -168445799#0 74481960#0 74481960#1 518338220 168445841#0 168445841#1 -83233168#5 -83233168#4 -83233168#3 -83233168#2 -83233168#1 -83233168#0 83233172#1 83233172#2 518338213#0 518338213#1 518338213#2 83233175#0 83233175#1 -3429496#5 -3429496#2 -3429496#1 -3429496#0 -521085114#3 -521085114#2 -521085114#1 -521085114#0 -241598561#0 -3533664#12 -3533664#10 -3533664#8 -3533664#7 -3533664#5 -3533664#4 -3533664#3 -3533664#2 -3533664#1 450844400#0 450844400#1 450844400#2 521085119#1 521085119#2 -279496867#4 -279496867#3 -279496867#2 -279496867#1 -41713379#3 -41713379#2 -41713379#1 -585198592#6 -585198592#5 -585198592#4 -585198592#2 -585198592#0 -30783784#1 -30783784#0 -551993389 -30783774#0 -551993392 -204023173#1 -204023173#0 -110247556#4 -110247556#3 -110247556#0 -261385817#10 -261385817#9 -261385817#7 -261385817#6 -261385817#5 -261385817#2 -261385817#1 -261385817#0 -261407201#1 -261407201#0 -41815763#8 -41815763#7 -41815763#6 -41815763#5 -41815763#4 -41815763#3 -41815763#1 -41815763#0 518338430 518338438 235935818#0 235935818#1 235935818#2 235935818#3 235935818#4 235935818#5 4292675#0 4292675#1 4292675#3 4292675#4 4292675#5 682235941#1 682235941#2 -682235941#2"/>
    </vehicle>
    <vehicle id="16" depart="16.00">
        <route edges="285973350#2 384656654#1 460070655 -81147238#2 -81147238#1 -81147238#0 -30589334 -384656648 30589049#0 30589049#1 30589049#2 30589049#3 30589049#4 30589049#5 30589156#0 30589156#1 30589290#0 30589290#1 30589290#2 261078829 41764090#0 41764090#1 41764090#2 41764090#3 41764090#4 41764090#5 41764090#6 41764090#7 41764098#0 41764098#1 41764098#2 41764098#3 41764098#4 41764098#5 41764098#6 521085123 41763882 547880246 747778275 220025554 747778273 518338265 204479791#0 204479849 3430151#0 3430151#1 204479847 54511342#1 204479877 -290182146 -356925055#0 -41853187 -356925047 -356925049#1 -356925049#0 -356925053 -356925036 -326353381 -326353380 -356925061 -356925062 -261401188 -356925067 -356925065 -354411057 -41806377#1 -41806377#0 -356925066 -356925058 -356925060 -356925063#0 -356925057 -356925064 -220025531 -4059603#1 -4059603#0 -220025534 -280373396 -281158062#2 37378908#0 37378908#1 37378904#6 37378904#7 37378904#8 37378904#9 37378904#11 37378904#12 37378904#13 37378904#14 -378174497#1"/>
    </vehicle>
    <vehicle id="17" depart="17.00">
        <route edges="-254780189#0 -356925056#1 -356925056#0 -254780188 -96749160 356925060 356925058 356925066 41806377#0 41806377#1 354411057 356925065 356925067 261401188 356925062 356925061 356925059 326353381 356925036 356925053 356925049#0 356925049#1 356925047 41853187 356925055#0 356925055#2 204479879 54511342#3 54511342#4 54511342#5 54511342#6 54511342#7 54511342#8 204479828 -3430151#1 -3430151#0 204479845 204479791#2 204479791#3 204479791#4 747778274 747778273 204479844 -262202870 -41714687#8 -41714687#7 -41714687#6 -41714687#5 -41714687#4 -41714687#3 -41714687#0 -518338268 -110247512 -164465798#7 -164465798#6 -164465798#5 -164465798#4 -164465798#3 -164465798#2 -164465798#1 3192356#1 3414164#1 3414164#2 3414164#3 3414164#4 3414164#5 261298267#0 261298267#1 261298267#2 261300264#0 261300264#1 261300264#2 41249408#0 41249408#1 41249408#2 41249408#3 450896657 41247521#0 41247521#1 41247521#2 41247521#4 41247521#5 41758515#1 41758493#0 41758493#1 41758493#2 450896664 450896665#0 450896665#1 375201332#0 375201332#1 375201332#2 375201332#3 375201332#4 41763264 330830801 518338414 41808635#1 375201783#0 375201783#1 42860179#1 42860179#2 375201784 4570915#0 4570915#1 330918518#0 -330918524#5 -330918524#4 330918524#4"/>
    </vehicle>
    <vehicle id="18" depart="18.00">
        <route edges="695857789#0 -695857789#0 -694120648#2 636920432 204479823 204479811#3 204479821 -54511347 204479830 204479816#2 204479816#3 204479816#4 204479837 -204479810 -308721678 -308721676 -326353477 -54511341#2 -54511341#1 -54511341#0 54511345#0 54511345#1 54511342#5 54511342#6 54511342#7 54511342#8 204479828 -3430151#1 -3430151#0 204479845 204479791#2 204479791#3 204479791#4 204479800 -747778275 -547880246 -41763882 -547880245#1 -229894467#1 -229894467#0 -41763878 -41758404#2 -41758404#1 -41758404#0 -261250711 -4059607#1 -4059607#0 4670076#0 4670076#1 261070780#0 261070780#1 261070780#2 312341111#0 312341111#1 312341111#3 312341111#5 312341111#7 30764770#0 30764770#1 95195776#0 -282708631 -168645246#5"/>
    </vehicle>
    <vehicle id="19" depart="19.00">
        <route edges="-349624666#1 -349624666#0 -42749954#0 -31022174#4 -31022174#3 -31022174#2 -31022174#1 -31022174#0 -337818863#1 -337818863#0 -330918518#5 -330918518#4 -330918518#3 -330918518#2 -330918518#1 -330918518#0 -4570915#1 -4570915#0 -8283572 -42860179#2 -42860179#1 -42860179#0 -375201783#0 -41808635#1 -518338414 -330830801 -41763264 -375201332#4 -375201332#3 -375201332#2 -375201332#1 -375201332#0 -450896665#1 -450896665#0 -450896664 -41758493#2 -41758493#1 -41758493#0 -41758515#1 -41247521#5 -41247521#4 -41247521#2 -41247521#1 -41247521#0 -450896657 -41249408#3 -41249408#2 -41249408#1 -41249408#0 -261300264#2 -261300264#1 -261300264#0 -41247510 -437249966#1 -437249966#0 -31540956#7 -31540956#6 -31540956#5 -31540956#4 -31540956#3 -31540956#2 -31540956#1 -31540956#0 -450844375#2 -450844375#1 -450844375#0 -4059520#7 -4059520#6 -4059520#5 -4059520#4 -4059520#3 -4059520#2 -4059520#1 3566533#0 -41246773#0 51554278#0 51554278#1 51554278#2 261302056 83233176#0 83233176#1 -331850974 -518338154#0 -450844383#0 168302156#0 168302156#1 41246475#0 41246475#1 51556062#1 51556062#2 51556062#3 51556062#4 51556062#5 51556062#6 312555442 312555443#0 312555443#1 41246450 204046008#0 204046007#1 204046005 312555437 220025530 312555435 312555439 312555438 261385816 81147234 3551813 261073255 313669370 76739147 41809315 75513394 313669346 521085121 518338170#1 313669316 313669344#0 313669344#1 110247489 220025551 220025547 30647476#1 -41815835#1 -41815835#0 -261253841#12 -261253841#11 -261253841#9 -261253841#8 -261253841#7 -261253841#6 -261253841#4 -261253841#3 -261253841#0 -41813044#3 -41813044#2 -41813044#1 -336696805#1 -336696805#0 -336696804 -235935815#5 -235935815#2 -235935815#1 -235935815#0 518338434 518338430 518338438 235935818#0 235935818#1 235935818#2 235935818#3 235935818#4 235935818#5 235935818#6 235935818#8 235935818#9 78174931#0 78174931#1 220025558 356925046 356925041 168280987#0 168280987#1 78174928#0 78174928#1 78174928#2 78174928#3 78174928#4 168280965#0 168280965#1 -4088033#1 -4088033#0 -451334474#2 -451334474#1 -451334474#0 -256921706#3 -256921706#2 -256921706#1 -256921706#0 -326353483#4 -326353483#3 -326353483#2 -326353483#1 -326353483#0 8084472 253388392#1 31512620#0 31512620#1 31512620#2 -253388391 -31539337#6 -31539337#5 -31539337#4 -31539337#3 -31539337#2 -31539337#1 -31539337#0 -253388425#1 -253388412"/>
    </vehicle>
    <vehicle id="20" depart="20.00">
        <route edges="-257308291 32041253#4 -41806393#5 -41806393#4 -41806393#3 -41806393#2 -41806393#1 -41806393#0 168253289#0 168253289#1 168253289#2 168253289#4 168253289#5 168253289#6 168253289#7 168253289#8 168253289#9 168253289#10 521085118 261410790 41806377#0 41806377#1 354411057 356925065 356925067 261401188 356925062 356925061 356925059 326353381 356925036 356925053 356925049#0 356925049#1 356925047 41853187 356925055#0 356925055#2 204479879 54511342#3 54511342#4 54511342#5 54511342#6 54511342#7 54511342#8 204479828 -3430151#1 -3430151#0 204479845 204479791#2 204479791#3 204479791#4 204479800 -747778275 -547880246 -41763882 -547880245#1 -229894467#1 -229894467#0 -547880244 -41764169 -41764136#3 -41764136#2 30917164 168608989#0 168608989#1"/>
    </vehicle>
    <vehicle id="21" depart="21.00">
        <route edges="-86322986#0 -110247557#3 -110247557#2 -110247557#1 -110247557#0 -3426019 -450844386 -41250814#4 -41250814#3 -41250814#2 -41250814#0 -690945794#1 -690945794#0 -9821703#1 -9821703#0 -690945793 -690945795 -690945797#1 -690945797#0 -690945798#0 -41713361#1 -41713361#0 -690945799#1 -690945799#0 -690945801 -690945802 -690945803 -690945804 -666515320#1 -666515320#0 -690945805 -4068216#1 -41713379#3 -41713379#2 -41713379#1 -585198592#6 -585198592#5 -585198592#4 -585198592#2 -585198592#0 -30783784#1 -30783784#0 -551993389 -30783774#0 -551993392 -204023173#1 -204023173#0 -110247556#4 -110247556#3 -110247556#0 -261385817#10 -261385817#9 -261385817#7 -261385817#6 -261385817#5 -261385817#2 -261385817#1 -261385817#0 -261407201#1 -261407201#0 -41815763#8 -41815763#7 -41815763#6 -41815763#5 -41815763#4 -41815763#3 -41815763#1 -41815763#0 518338430 518338438 235935817 235935815#0 235935815#1 235935815#2 235935815#5 235935815#7 336696805#0 336696805#1 -4059624 -220025537#7 -220025537#6 -220025537#5 -220025537#4 -220025537#3 -220025537#2 -220025537#1 -220025537#0 220025536 281158062#0 281158062#1 281158062#2 280373396 220025534 4059603#0 4059603#1 220025531 356925064 356925057 356925063#0 356925060 356925058 356925066 41806377#0 41806377#1"/>
    </vehicle>
    <vehicle id="22" depart="22.00">