<?xml version="1.0" encoding="UTF-8"?>
<!-- generated on 2020-04-01 00:32:50.511524 by randomTrips.py v1_5_0+0257-3d8ad007eb
  options: -n pecs.net.xml -e 200 -r pecs.rou.xml
-->
<routes xmlns:xsi="http://www.w3.org/2001/XMLSchema-instance" xsi:noNamespaceSchemaLocation="http://sumo.dlr.de/xsd/routes_file.xsd">
    <trip id="0" depart="0.00" from="-4059340#1" to="-355147075#5"/>
    <trip id="1" depart="1.00" from="8084300#1" to="30667844#2"/>
    <trip id="2" depart="2.00" from="330682298#2" to="-208846531"/>
    <trip id="3" depart="3.00" from="-147174874#0" to="256977031#0"/>
    <trip id="4" depart="4.00" from="-141121335#2" to="-31764264#2"/>
    <trip id="5" depart="5.00" from="330682302#4" to="30589536"/>
    <trip id="6" depart="6.00" from="256664527#1" to="-31459661#1"/>
    <trip id="7" depart="7.00" from="-387565948#4" to="518338230"/>
    <trip id="8" depart="8.00" from="-261093144#6" to="-3429498#0"/>
    <trip id="9" depart="9.00" from="-330846250#0" to="-8084424"/>
    <trip id="10" depart="10.00" from="41526911#4" to="113728660#1"/>
    <trip id="11" depart="11.00" from="-701155992" to="-261385818#0"/>
    <trip id="12" depart="12.00" from="518338388#0" to="538098426#0"/>
    <trip id="13" depart="13.00" from="-220025551" to="8084601#1"/>
    <trip id="14" depart="14.00" from="687756439" to="41806393#7"/>
    <trip id="15" depart="15.00" from="520615336#0" to="-682235941#2"/>
    <trip id="16" depart="16.00" from="285973350#2" to="-378174497#1"/>
    <trip id="17" depart="17.00" from="-254780189#0" to="330918524#4"/>
    <trip id="18" depart="18.00" from="695857789#0" to="-168645246#5"/>
    <trip id="19" depart="19.00" from="-349624666#1" to="-253388412"/>
    <trip id="20" depart="20.00" from="-257308291" to="168608989#1"/>
    <trip id="21" depart="21.00" from="-86322986#0" to="41806377#1"/>
    <trip id="22" depart="22.00" from="312297438" to="-54511341#1"/>
    <trip id="23" depart="23.00" from="-356925044" to="-356925070"/>
    <trip id="24" depart="24.00" from="4187268#11" to="256461397#8"/>
    <trip id="25" depart="25.00" from="4059264#4" to="349624593#3"/>
    <trip id="26" depart="26.00" from="-255582310#2" to="-3430151#0"/>
    <trip id="27" depart="27.00" from="206439477#1" to="255050585"/>
    <trip id="28" depart="28.00" from="497897082#2" to="-71160196#2"/>
    <trip id="29" depart="29.00" from="28761812#4" to="-47976922#1"/>
    <trip id="30" depart="30.00" from="-561982591#0" to="-256921706#0"/>
    <trip id="31" depart="31.00" from="-240403236#0" to="-450896662"/>
    <trip id="32" depart="32.00" from="28761812#2" to="-278794299#2"/>
    <trip id="33" depart="33.00" from="-3565057#6" to="-4086424#0"/>
    <trip id="34" depart="34.00" from="349624628#1" to="169857995#3"/>
    <trip id="35" depart="35.00" from="32103246#6" to="-30917566#7"/>
    <trip id="36" depart="36.00" from="-30647020#5" to="30883758#14"/>
    <trip id="37" depart="37.00" from="169375239#13" to="4292807#2"/>
    <trip id="38" depart="38.00" from="-349894237" to="-28477497"/>
    <trip id="39" depart="39.00" from="225409992#4" to="500951952"/>
    <trip id="40" depart="40.00" from="149403381#1" to="39087309#3"/>
    <trip id="41" depart="41.00" from="-161976991#2" to="-171609550#0"/>
    <trip id="42" depart="42.00" from="-30767017#0" to="8084344#5"/>
    <trip id="43" depart="43.00" from="-4292642#7" to="-46240951#1"/>
    <trip id="44" depart="44.00" from="-31513635#1" to="681454423#1"/>
    <trip id="45" depart="45.00" from="-41764090#1" to="30668820#1"/>
    <trip id="46" depart="46.00" from="-30783207#10" to="72061267#6"/>
    <trip id="47" depart="47.00" from="30849787#1" to="-527473213#1"/>
    <trip id="48" depart="48.00" from="4059631#4" to="31742131#5"/>
    <trip id="49" depart="49.00" from="-86318416#4" to="310950167#1"/>
    <trip id="50" depart="50.00" from="690945808" to="48132470#0"/>
    <trip id="51" depart="51.00" from="30724590#3" to="-32067508"/>
    <trip id="52" depart="52.00" from="4088035#0" to="260095312#5"/>
    <trip id="53" depart="53.00" from="-254135162#1" to="627789421"/>
    <trip id="54" depart="54.00" from="-31463637#1" to="330830815"/>
    <trip id="55" depart="55.00" from="-3552147#2" to="224970241"/>
    <trip id="56" depart="56.00" from="-30644033#0" to="86318416#6"/>
    <trip id="57" depart="57.00" from="-387565948#3" to="120586168#0"/>
    <trip id="58" depart="58.00" from="-4186698#3" to="30642796#0"/>
    <trip id="59" depart="59.00" from="-30668722#1" to="322467177#1"/>
    <trip id="60" depart="60.00" from="-239858336" to="-523331373#2"/>
    <trip id="61" depart="61.00" from="-31098072#2" to="257026103"/>
    <trip id="62" depart="62.00" from="-451334475#0" to="-518338385"/>
    <trip id="63" depart="63.00" from="31667150#1" to="168253303"/>
    <trip id="64" depart="64.00" from="-4292739#5" to="627591067#3"/>
    <trip id="65" depart="65.00" from="8084464" to="-168874411#1"/>
    <trip id="66" depart="66.00" from="-168253289#0" to="40128074#2"/>
    <trip id="67" depart="67.00" from="-224896419#1" to="123111776#5"/>
    <trip id="68" depart="68.00" from="48132473#1" to="-8084442#11"/>
    <trip id="69" depart="69.00" from="254237917#1" to="30819907"/>
    <trip id="70" depart="70.00" from="270203696#0" to="168196066#1"/>
    <trip id="71" depart="71.00" from="349894245#1" to="253388403#0"/>
    <trip id="72" depart="72.00" from="31096558#5" to="306160830"/>
    <trip id="73" depart="73.00" from="253388443" to="-42485606#0"/>
    <trip id="74" depart="74.00" from="147984012#3" to="86318391#0"/>
    <trip id="75" depart="75.00" from="524485907#1" to="31666960#3"/>
    <trip id="76" depart="76.00" from="-47388014#9" to="-171616287#0"/>
    <trip id="77" depart="77.00" from="3414164#2" to="31463886#1"/>
    <trip id="78" depart="78.00" from="224966368#0" to="392834852"/>
    <trip id="79" depart="79.00" from="96699181" to="-261093144#7"/>
    <trip id="80" depart="80.00" from="-523839162#1" to="-31513252#0"/>
    <trip id="81" depart="81.00" from="312341123" to="330830818"/>
    <trip id="82" depart="82.00" from="-30589553" to="-521085117#5"/>
    <trip id="83" depart="83.00" from="31742240#0" to="-31764848#6"/>
    <trip id="84" depart="84.00" from="-313669346" to="-675229953#1"/>
    <trip id="85" depart="85.00" from="460070633" to="349624651#0"/>
    <trip id="86" depart="86.00" from="31742448#1" to="30782447#7"/>
    <trip id="87" depart="87.00" from="169155553#0" to="338353838#0"/>
    <trip id="88" depart="88.00" from="313889223#0" to="-329284749"/>
    <trip id="89" depart="89.00" from="3565057#3" to="8364998#5"/>
    <trip id="90" depart="90.00" from="-115508033#0" to="392834913#1"/>
    <trip id="91" depart="91.00" from="527473213#1" to="641671749"/>
    <trip id="92" depart="92.00" from="-161799819#0" to="-39208063#2"/>
    <trip id="93" depart="93.00" from="626657826" to="4423559#2"/>
    <trip id="94" depart="94.00" from="-392128418" to="4292713#0"/>
    <trip id="95" depart="95.00" from="30883805#5" to="-4292807#4"/>
    <trip id="96" depart="96.00" from="30724444#3" to="-253388430#0"/>
    <trip id="97" depart="97.00" from="356925038" to="31665492"/>
    <trip id="98" depart="98.00" from="41856254#7" to="258765899"/>
    <trip id="99" depart="99.00" from="204662532" to="392932836#2"/>
    <trip id="100" depart="100.00" from="-330830814" to="31540956#7"/>
    <trip id="101" depart="101.00" from="349624628#0" to="261385817#2"/>
    <trip id="102" depart="102.00" from="450844394#1" to="4216376#1"/>
    <trip id="103" depart="103.00" from="-30743025#10" to="-3987488"/>
    <trip id="104" depart="104.00" from="-298195281#0" to="638706540"/>
    <trip id="105" depart="105.00" from="-451334484#5" to="378664921#1"/>
    <trip id="106" depart="106.00" from="37378563#7" to="-707843635#10"/>
    <trip id="107" depart="107.00" from="-171609575#4" to="31022174#4"/>
    <trip id="108" depart="108.00" from="-460070654" to="-440866572#1"/>
    <trip id="109" depart="109.00" from="39700301#0" to="523839162#2"/>
    <trip id="110" depart="110.00" from="-349894186#1" to="-31856236#4"/>
    <trip id="111" depart="111.00" from="-110247535#2" to="-253388449#1"/>
    <trip id="112" depart="112.00" from="-4062073#2" to="-40127510#2"/>
    <trip id="113" depart="113.00" from="41854046#1" to="-312297495#0"/>
    <trip id="114" depart="114.00" from="-31740512#10" to="223696661#1"/>
    <trip id="115" depart="115.00" from="322467183#1" to="261414856#8"/>
    <trip id="116" depart="116.00" from="-37378904#32" to="-96127758#1"/>
    <trip id="117" depart="117.00" from="-41714787#2" to="253388439#6"/>
    <trip id="118" depart="118.00" from="450844390#4" to="4423591"/>
    <trip id="119" depart="119.00" from="42808713#1" to="349624599"/>
    <trip id="120" depart="120.00" from="690945799#0" to="-31512740#1"/>
    <trip id="121" depart="121.00" from="-4088033#1" to="-47388014#15"/>
    <trip id="122" depart="122.00" from="-8084446#0" to="-32066780#1"/>
    <trip id="123" depart="123.00" from="-168280973#1" to="697562813#2"/>
    <trip id="124" depart="124.00" from="-41247044#0" to="349624642"/>
    <trip id="125" depart="125.00" from="254865355#0" to="-239858298"/>
    <trip id="126" depart="126.00" from="518338172#3" to="144626007#3"/>
    <trip id="127" depart="127.00" from="168196089#5" to="-41713705#2"/>
    <trip id="128" depart="128.00" from="4088051#1" to="168645278"/>
    <trip id="129" depart="129.00" from="518338352" to="-753510656"/>
    <trip id="130" depart="130.00" from="-51722082#15" to="-350007448#0"/>
    <trip id="131" depart="131.00" from="-518338441" to="-30917566#6"/>
    <trip id="132" depart="132.00" from="-157542024" to="-31053832#1"/>
    <trip id="133" depart="133.00" from="-690945800#1" to="-8084475#2"/>
    <trip id="134" depart="134.00" from="321954911" to="41810586#2"/>
    <trip id="135" depart="135.00" from="687389119" to="-261298282#2"/>
    <trip id="136" depart="136.00" from="143877309#2" to="-168196070"/>
    <trip id="137" depart="137.00" from="54847746" to="-750780918#4"/>
    <trip id="138" depart="138.00" from="-31022421#10" to="143954205"/>
    <trip id="139" depart="139.00" from="-31022577#1" to="4292717#0"/>
    <trip id="140" depart="140.00" from="41806393#0" to="-48132472#3"/>
    <trip id="141" depart="141.00" from="30765393#1" to="31539337#3"/>
    <trip id="142" depart="142.00" from="-253388379#1" to="-254237895"/>
    <trip id="143" depart="143.00" from="-168559852#2" to="-41347440#0"/>
    <trip id="144" depart="144.00" from="-349624498#2" to="497249401"/>
    <trip id="145" depart="145.00" from="-190029506#1" to="-30917976#1"/>
    <trip id="146" depart="146.00" from="30645461#3" to="-690945800#7"/>
    <trip id="147" depart="147.00" from="280133516" to="-204479869"/>
    <trip id="148" depart="148.00" from="4088063#2" to="30884381#4"/>
    <trip id="149" depart="149.00" from="4059609" to="-4059470#1"/>
    <trip id="150" depart="150.00" from="642933207" to="332208660#1"/>
    <trip id="151" depart="151.00" from="-3429883#6" to="257245051#0"/>
    <trip id="152" depart="152.00" from="-30917894#0" to="-270203696#0"/>
    <trip id="153" depart="153.00" from="-204004567#9" to="168608991#0"/>
    <trip id="154" depart="154.00" from="-4216376#0" to="329852767"/>
    <trip id="155" depart="155.00" from="487517785#4" to="-450844402#4"/>
    <trip id="156" depart="156.00" from="41757677#0" to="-4292941#0"/>
    <trip id="157" depart="157.00" from="4196710#2" to="4292822#5"/>
    <trip id="158" depart="158.00" from="-48132991#2" to="3545673#13"/>
    <trip id="159" depart="159.00" from="4292810#3" to="-672319305#0"/>
    <trip id="160" depart="160.00" from="-298195284#2" to="-3564712#11"/>
    <trip id="161" depart="161.00" from="30884381#1" to="-356925038"/>
    <trip id="162" depart="162.00" from="310962465#5" to="-8084304#0"/>
    <trip id="163" depart="163.00" from="-518338368" to="330751174"/>
    <trip id="164" depart="164.00" from="37378657#0" to="-171616281#5"/>
    <trip id="165" depart="165.00" from="-353613088" to="4929270#2"/>
    <trip id="166" depart="166.00" from="-208597256#1" to="-41526911#7"/>
    <trip id="167" depart="167.00" from="96821041#0" to="3533715#0"/>
    <trip id="168" depart="168.00" from="506195311" to="-330682297#0"/>
    <trip id="169" depart="169.00" from="257027191#0" to="-28477493#4"/>
    <trip id="170" depart="170.00" from="3545266" to="-40128416#1"/>
    <trip id="171" depart="171.00" from="-208846507#1" to="499316925"/>
    <trip id="172" depart="172.00" from="681243795#2" to="523331372#1"/>
    <trip id="173" depart="173.00" from="-171609581#3" to="-261253845#1"/>
    <trip id="174" depart="174.00" from="40128799#1" to="261379102#12"/>
    <trip id="175" depart="175.00" from="-660983053" to="8084365#2"/>
    <trip id="176" depart="176.00" from="367859051#3" to="355147075#9"/>
    <trip id="177" depart="177.00" from="450844394#2" to="-330918508#0"/>
    <trip id="178" depart="178.00" from="31826395#2" to="-204119186#0"/>
    <trip id="179" depart="179.00" from="80179214#1" to="-30817953#1"/>
    <trip id="180" depart="180.00" from="261250717" to="500951954#2"/>
    <trip id="181" depart="181.00" from="-110247485#0" to="-261300264#2"/>
    <trip id="182" depart="182.00" from="-260092743" to="168874280#0"/>
    <trip id="183" depart="183.00" from="4423592#1" to="497778448#1"/>
    <trip id="184" depart="184.00" from="168302231" to="-450844402#4"/>
    <trip id="185" depart="185.00" from="392834859" to="-208697754"/>
    <trip id="186" depart="186.00" from="3425635#1" to="3551983#1"/>
    <trip id="187" depart="187.00" from="-4320772" to="-37378904#34"/>
    <trip id="188" depart="188.00" from="4292697#7" to="31513635#1"/>
    <trip id="189" depart="189.00" from="3987578#1" to="51722082#4"/>
    <trip id="190" depart="190.00" from="30565348#1" to="450844361"/>
    <trip id="191" depart="191.00" from="-8084329#5" to="28477492#2"/>
    <trip id="192" depart="192.00" from="-8084399#8" to="206152436#0"/>
    <trip id="193" depart="193.00" from="31901992#0" to="-312394425"/>
    <trip id="194" depart="194.00" from="168196100#2" to="-3543734#3"/>
    <trip id="195" depart="195.00" from="4292739#4" to="750780916#2"/>
    <trip id="196" depart="196.00" from="-208597254#1" to="168445813#1"/>
    <trip id="197" depart="197.00" from="261093146" to="-32066597#2"/>
    <trip id="198" depart="198.00" from="261253845#5" to="-4059551#17"/>
    <trip id="199" depart="199.00" from="-30889231#0" to="261073253#0"/>
</routes>
